@<TRIPOS>MOLECULE
modXNA-fragment:GDS:HEAD01:@C4':HEAD01STRIP:@O10,HO10:TAIL01:@O3':TAIL01STRIP:@HHO3:HEAD03:@C1':HEAD03STRIP:@C12,H121,H122,H123
   18    18     1     0     0
SMALL
USER_CHARGES


@<TRIPOS>ATOM
      1 O3'         1.6950    1.4120   -0.3770 OH         1 GDS     -0.659792
      2 C1'        -1.1000    0.5500   -0.2840 CT         1 GDS      0.433226
      3 C2'        -0.2050    0.8720    0.9190 CT         1 GDS     -0.148091
      4 C3'         1.1590    0.4050    0.4400 CT         1 GDS      0.149209
      5 C4'         0.7620   -0.8300   -0.3740 CT         1 GDS      0.380008
      6 O4'        -0.4380   -0.5140   -0.9620 OS         1 GDS     -0.484583
      7 C12        -2.5150    0.1290    0.0650 CT         1 GDS     -0.373411
      8 H1'        -1.1240    1.3930   -0.9630 H1         1 GDS      0.009532
      9 H2'1       -0.2050    1.9230    1.1770 HC         1 GDS      0.062938
     10 H2'2       -0.5060    0.2940    1.7850 HC         1 GDS      0.062938
     11 H3'         1.8390    0.1560    1.2490 H1         1 GDS      0.044614
     12 H4'         1.4780   -1.0730   -1.1550 H2         1 GDS      0.044017
     13 H121       -3.0390    0.9370    0.5670 HC         1 GDS      0.097541
     14 H122       -2.5020   -0.7380    0.7160 HC         1 GDS      0.097541
     15 H123       -3.0660   -0.1270   -0.8330 HC         1 GDS      0.097541
     16 O10         0.5700   -1.9320    0.4650 OH         1 GDS     -0.619850
     17 HO10        1.3950   -2.3710    0.6220 HO         1 GDS      0.390754
     18 HHO3        2.5070    1.1200   -0.7680 HO         1 GDS      0.415867
@<TRIPOS>BOND
    1     1     4 1
    2     2     3 1
    3     2     6 1
    4     2     7 1
    5     3     4 1
    6     4     5 1
    7     5     6 1
    8     5    16 1
    9     1    18 1
   10     2     8 1
   11     3     9 1
   12     3    10 1
   13     4    11 1
   14     5    12 1
   15     7    13 1
   16     7    14 1
   17     7    15 1
   18    16    17 1
@<TRIPOS>SUBSTRUCTURE
      1 GDS               1 ****               0 ****  **** 
