@<TRIPOS>MOLECULE
modXNA-fragment:GMS:HEAD01:@C4':HEAD01STRIP:@O10,HO10:TAIL01:@O3':TAIL01STRIP:@HHO3:HEAD03:@C1':HEAD03STRIP:@C12,H121,H122,H123
   22    22     1     0     0
SMALL
USER_CHARGES


@<TRIPOS>ATOM
      1 O3'        -0.7240    1.8850    0.7470 OH         1 GMS     -0.672796
      2 C1'         0.4220   -1.4090   -0.2740 CT         1 GMS      0.446746
      3 C2'        -0.6960   -0.5160    0.3010 CT         1 GMS      0.069408
      4 C3'         0.0790    0.7550    0.6370 CT         1 GMS      0.216660
      5 C4'         1.0840    0.8010   -0.4960 CT         1 GMS      0.535682
      6 O10         2.1600    1.5880   -0.1350 OH         1 GMS     -0.739043
      7 O4'         1.4690   -0.5280   -0.6640 OS         1 GMS     -0.567426
      8 O2'        -1.6450   -0.3100   -0.7020 OS         1 GMS     -0.410075
      9 C12         0.9780   -2.4350    0.6980 CT         1 GMS     -0.294844
     10 H1'         0.0370   -1.9020   -1.1570 H1         1 GMS     -0.007859
     11 H2'        -1.1630   -0.9610    1.1740 H1         1 GMS      0.065327
     12 H3'         0.6450    0.5890    1.5520 H1         1 GMS      0.052067
     13 H4'         0.6250    1.1760   -1.4060 H2         1 GMS     -0.009983
     14 C14        -2.9310    0.0470   -0.2750 CT         1 GMS      0.027605
     15 H121        0.2250   -3.1780    0.9420 HC         1 GMS      0.067956
     16 H122        1.3140   -1.9660    1.6170 HC         1 GMS      0.067956
     17 H123        1.8270   -2.9410    0.2520 HC         1 GMS      0.067956
     18 H141       -3.5440    0.1260   -1.1630 H1         1 GMS      0.060495
     19 H142       -2.9330    0.9930    0.2490 H1         1 GMS      0.060495
     20 H143       -3.3490   -0.7230    0.3700 H1         1 GMS      0.060495
     21 HHO3       -0.1670    2.6360    0.9060 HO         1 GMS      0.437491
     22 HO10        2.7920    1.6050   -0.8410 HO         1 GMS      0.465687
@<TRIPOS>BOND
    1     1     4 1
    2     2     3 1
    3     2     7 1
    4     2     9 1
    5     3     4 1
    6     3     8 1
    7     4     5 1
    8     5     6 1
    9     5     7 1
   10     8    14 1
   11     1    21 1
   12     2    10 1
   13     3    11 1
   14     4    12 1
   15     5    13 1
   16     6    22 1
   17     9    15 1
   18     9    16 1
   19     9    17 1
   20    14    18 1
   21    14    19 1
   22    14    20 1
@<TRIPOS>SUBSTRUCTURE
      1 GMS               1 ****               0 ****  **** 
