@<TRIPOS>MOLECULE
modXNA-fragment:GRS:HEAD01:@C4':HEAD01STRIP:@O10,HO10:TAIL01:@O3':TAIL01STRIP:@HHO3:HEAD03:@C1':HEAD03STRIP:@C12,H121,H122,H123
   19    19     1     0     0
SMALL
USER_CHARGES


@<TRIPOS>ATOM
      1 O3'         1.8760    1.1440    0.5910 OH         1 GRS     -0.745937
      2 C1'        -1.4080   -0.0620   -0.3000 CT         1 GRS      0.316229
      3 C2'        -0.4910    1.0650    0.1950 CT         1 GRS      0.357012
      4 C3'         0.7630    0.3020    0.5970 CT         1 GRS      0.135641
      5 C4'         0.7900   -0.8040   -0.4410 CT         1 GRS      0.548252
      6 O10         1.5310   -1.8710    0.0290 OH         1 GRS     -0.736006
      7 O4'        -0.5470   -1.1550   -0.6060 OS         1 GRS     -0.548097
      8 O2'        -0.2190    1.9220   -0.8780 OH         1 GRS     -0.767242
      9 C12        -2.4480   -0.5210    0.7070 CT         1 GRS     -0.400272
     10 H1'        -1.8900    0.2630   -1.2120 H1         1 GRS      0.058468
     11 H2'        -0.9260    1.6180    1.0210 H1         1 GRS     -0.006229
     12 H3'         0.6260   -0.1620    1.5700 H1         1 GRS      0.072240
     13 H4'         1.1990   -0.4430   -1.3810 H2         1 GRS     -0.015667
     14 HHO2        0.5840    2.3930   -0.6900 HO         1 GRS      0.488015
     15 H121       -3.1730    0.2650    0.8920 HC         1 GRS      0.101241
     16 H122       -1.9870   -0.7960    1.6510 HC         1 GRS      0.101241
     17 H123       -2.9720   -1.3900    0.3260 HC         1 GRS      0.101241
     18 HHO3        2.6550    0.6390    0.7870 HO         1 GRS      0.476224
     19 HO10        1.5130   -2.5740   -0.6060 HO         1 GRS      0.463646
@<TRIPOS>BOND
    1     1     4 1
    2     2     3 1
    3     2     7 1
    4     2     9 1
    5     3     4 1
    6     3     8 1
    7     4     5 1
    8     5     6 1
    9     5     7 1
   10     1    18 1
   11     2    10 1
   12     3    11 1
   13     4    12 1
   14     5    13 1
   15     6    19 1
   16     8    14 1
   17     9    15 1
   18     9    16 1
   19     9    17 1
@<TRIPOS>SUBSTRUCTURE
      1 GRS               1 ****               0 ****  **** 
