@<TRIPOS>MOLECULE
modXNA-fragment:OME:HEAD01:@C5':HEAD01STRIP:@O1,H6:TAIL01:@O3':TAIL01STRIP:@H7:HEAD03:@C1':HEAD03STRIP:@C6,H9,H10,H11
   25    25     1     0     0
SMALL
USER_CHARGES


@<TRIPOS>ATOM
      1 O1         -2.7373   -0.2986    0.9909 OH         1 OME     -0.658348
      2 C5'        -2.7524    0.3397   -0.2608 CI         1 OME      0.119115
      3 H5'        -3.0793    1.3567   -0.0940 H1         1 OME      0.042013
      4 H5''       -3.4681   -0.1362   -0.9296 H1         1 OME      0.042013
      5 C4'        -1.3842    0.3812   -0.9232 CT         1 OME      0.116491
      6 H4'        -1.5101    0.7720   -1.9318 H1         1 OME      0.013915
      7 O4'        -0.5514    1.2469   -0.1927 OS         1 OME     -0.474448
      8 C1'         0.6960    0.6492    0.0801 CT         1 OME      0.283784
      9 C3'        -0.7976   -0.9215   -0.6469 CT         1 OME      0.127930
     10 H3'        -1.1941   -1.1239    0.3457 H1         1 OME      0.019321
     11 C2'         0.6823   -0.7355   -0.6333 CT         1 OME      0.174570
     12 H2'         1.4551   -1.4302   -0.3109 H1         1 OME      0.028124
     13 O3'        -1.1700   -2.0638   -1.0949 OS         1 OME     -0.658945
     14 H6         -2.9513   -1.2139    0.8920 HO         1 OME      0.409446
     15 C6          1.2669    1.2326    1.3547 CT         1 OME     -0.214186
     16 H7         -1.4631   -2.8504   -0.6568 HO         1 OME      0.425460
     17 H1'         1.3773    0.8180   -0.7490 H2         1 OME      0.018264
     18 O2'         1.0039   -0.1767   -1.8583 OS         1 OME     -0.414486
     19 H9          2.2104    0.7535    1.5917 H1         1 OME      0.075428
     20 H10         0.5774    1.0868    2.1784 H1         1 OME      0.075428
     21 H11         1.4405    2.2973    1.2391 H1         1 OME      0.075428
     22 CM1         0.1755    0.8586   -2.2875 CT         1 OME     -0.017009
     23 HM'1        0.4874    1.1245   -3.2888 H1         1 OME      0.066018
     24 HM'2        0.2676    1.7327   -1.6505 H1         1 OME      0.066018
     25 HM'3       -0.8669    0.5454   -2.3163 H1         1 OME      0.066018
@<TRIPOS>BOND
    1     1     2 1
    2     2     5 1
    3     5     7 1
    4     5     9 1
    5     7     8 1
    6     8    11 1
    7     8    15 1
    8     9    11 1
    9     9    13 1
   10    11    18 1
   11    18    22 1
   12     1    14 1
   13     2     3 1
   14     2     4 1
   15     5     6 1
   16     8    17 1
   17     9    10 1
   18    11    12 1
   19    13    16 1
   20    15    19 1
   21    15    20 1
   22    15    21 1
   23    22    23 1
   24    22    24 1
   25    22    25 1
@<TRIPOS>SUBSTRUCTURE
      1 OME               1 ****               0 ****  **** 
