@<TRIPOS>MOLECULE
modXNA-5'-fragment:5PO:HEAD01:@P:HEAD01STRIP:NONE:TAIL01:@O5':TAIL01STRIP:@C5',H5'1,H5'2,H5'3
   10     9     1     0     0
SMALL
USER_CHARGES


@<TRIPOS>ATOM
      1 P          -0.4750    0.1600   -0.0250 P          1 DPO     -1.993788
      2 OP1        -1.5210    0.0600   -1.0570 O2         1 DPO      0.530780
      3 OP2        -0.2430    1.3330    0.8310 O2         1 DPO      0.530780
      4 O5'         0.9380   -0.2250   -0.7640 OS         1 DPO      0.681379
      5 C5'         2.1230   -0.0970   -0.0430 CT         1 DPO     -5.280519
      6 H5'1        2.1370   -0.7580    0.8200 H1         1 DPO      1.651005
      7 H5'2        2.2680    0.9190    0.3020 H1         1 DPO      1.651005
      8 OP3        -0.6490   -1.1460    0.9570 OH         1 DPO     -0.180388
      9 HOP3       -1.1580   -1.7820    0.4730 HO         1 DPO      0.758740
     10 H5'3        2.9430   -0.3730   -0.7000 H1         1 DPO      1.651005
@<TRIPOS>BOND
    1     1     2 1
    2     1     3 1
    3     1     4 1
    4     1     8 1
    5     4     5 1
    6     5     6 1
    7     5     7 1
    8     5    10 1
    9     8     9 1
@<TRIPOS>SUBSTRUCTURE
      1 DPO               1 ****               0 ****  **** 
