@<TRIPOS>MOLECULE
modXNA-fragment:MES:HEAD01:@P:HEAD01STRIP:@O5',C2,H21,H22,H23:TAIL01:@O3':TAIL01STRIP:@C1,H11,H12,H13
   20    19     1     0     0
SMALL
No Charge or Current Charge


@<TRIPOS>ATOM
      1 C1           0.8860    -0.8700     0.3800 c3         1 MES      -5.377685 
      2 H11         -0.2370    -0.9270     0.4920 h1         1 MES       1.738276 
      3 H12          1.2480     0.1460     0.5850 h1         1 MES       1.738276 
      4 H13          1.3670    -1.5580     1.0790 h1         1 MES       1.738276 
      5 O3'          1.2660    -1.2410    -0.9510 os         1 MES       0.211468 
      6 P            2.8580    -1.3220    -0.9640 p5         1 MES       0.357097 
      7 O2P          3.2420    -1.6100    -2.2850 o          1 MES      -0.234815 
      8 O5'          3.1360    -2.7520    -0.2280 os         1 MES       0.211468 
      9 C2           2.5880    -3.7560    -1.0640 c3         1 MES      -5.377685 
     10 H21          3.0860    -3.7120    -2.0410 h1         1 MES       1.738276 
     11 H22          2.7400    -4.7380    -0.6120 h1         1 MES       1.738276 
     12 H23          1.5180    -3.5600    -1.1940 h1         1 MES       1.738276 
     13 N40          3.3890    -0.2080    -0.2890 ne         1 MES       0.817487 
     14 S41          3.5320     0.9250    -0.6060 sy         1 MES      -3.850337 
     15 O42          2.3590     1.8760    -0.9060 o          1 MES       1.244800 
     16 C43          4.1590     0.9070    -1.5970 c3         1 MES      -6.475003 
     17 O44          4.3070     1.6430     0.5630 o          1 MES       1.244800 
     18 H45          5.0380     0.2840    -1.3740 h1         1 MES       2.266250 
     19 H46          4.4880     1.9380    -1.8390 h1         1 MES       2.266250 
     20 H47          3.6190     0.4820    -2.4560 h1         1 MES       2.266250 
@<TRIPOS>BOND
     1     1     2 1   
     2     1     3 1   
     3     1     4 1   
     4     1     5 1   
     5     5     6 1   
     6     6     7 1   
     7     6     8 1   
     8     6    13 2   
     9     8     9 1   
    10     9    10 1   
    11     9    11 1   
    12     9    12 1   
    13    13    14 1   
    14    14    15 2   
    15    14    16 1   
    16    14    17 2   
    17    16    18 1   
    18    16    19 1   
    19    16    20 1   
@<TRIPOS>SUBSTRUCTURE
     1 MES         1 TEMP              0 ****  ****    0 ROOT
