@<TRIPOS>MOLECULE
modXNA-fragment:MXG:HEAD01:@P:HEAD01STRIP:@O3',C3,H31,H32,H33:TAIL01:@C4:TAIL01STRIP:@C5',H5'1,H5'2,H5'3
   15    14     1     0     0
SMALL
USER_CHARGES


@<TRIPOS>ATOM
      1 P          -0.0990   -0.6020   -0.0100 P          1 MXG      1.198406
      2 OP1        -0.9970   -1.1660    1.0250 O2         1 MXG     -0.845601
      3 OP2         0.4870   -1.4030   -1.1030 O2         1 MXG     -0.845601
      4 C4          1.2570    0.3000    0.8440 CT         1 MXG      0.079257
      5 C5'         2.2300    1.0150   -0.0950 CT         1 MXG     -0.094765
      6 H5'1        1.7150    1.7730   -0.6780 HC         1 MXG     -0.002851
      7 H5'2        2.6680    0.3100   -0.7910 HC         1 MXG     -0.002851
      8 O3'        -0.8910    0.6670   -0.7230 OS         1 MXG     -0.500825
      9 C3         -1.9340    1.2940   -0.0480 CT         1 MXG      0.053473
     10 H5'3        3.0350    1.5040    0.4540 HC         1 MXG     -0.002851
     11 H31        -2.3520    2.0470   -0.7110 H1         1 MXG      0.029869
     12 H32        -1.5940    1.7940    0.8580 H1         1 MXG      0.029869
     13 H33        -2.7090    0.5920    0.2310 H1         1 MXG      0.029869
     14 H7          0.8230    1.0040    1.5510 HC         1 MXG     -0.062699
     15 H8          1.7910   -0.4380    1.4390 HC         1 MXG     -0.062699
@<TRIPOS>BOND
    1     1     2 1
    2     1     3 1
    3     1     4 1
    4     1     8 1
    5     4     5 1
    6     8     9 1
    7     4    14 1
    8     4    15 1
    9     5     6 1
   10     5     7 1
   11     5    10 1
   12     9    11 1
   13     9    12 1
   14     9    13 1
@<TRIPOS>SUBSTRUCTURE
      1 MXG               1 ****               0 ****  **** 
